data/state_estimation/SE_PT2030_W/state_estimation_PT2030_W_t10.csv
bus,vm_pu,va_degree,p_mw,q_mvar
1,1.042804,-0.102703,-0.009821,-44.361766
2,1.041474,0.016909,-0.000480,-43.823226
3,1.040331,0.013495,0.042077,-17.755031
4,1.037519,0.248704,0.090652,-51.717683
5,1.029336,0.297325,754.175362,-88.204040
6,1.028060,0.166228,0.070348,-2.371078
7,1.035095,0.326864,378.008000,0.713155
8,1.004133,-0.049835,0.064577,0.048175
9,1.018693,-0.002261,0.024317,-0.039984
10,1.039428,0.417734,1398.387905,0.000070
11,1.015290,-0.016416,-1.029185,0.164760
12,1.022159,0.239806,0.022295,0.054110
13,1.019515,-0.016268,-4.020125,-1.310719
14,1.020673,0.003966,-0.033147,-0.043752
15,1.038711,0.212223,0.017001,0.063067
16,1.022656,-0.068671,0.072377,0.061543
17,1.031587,-0.165308,0.092905,0.004409
18,1.021937,-0.211047,0.082050,0.041013
19,1.010778,0.195640,-0.021571,0.034723
20,1.013309,-0.030246,0.069840,-0.027657
21,1.027672,-0.194937,0.029790,0.011814
22,1.032268,0.289628,100.655689,18.774100
23,1.014520,0.245626,0.058405,0.034395
24,1.026147,-0.002965,0.121341,-0.027160
25,1.025952,-0.193103,0.005766,0.042762
26,1.033066,0.326312,-3.352393,-0.462826
27,1.024755,0.096752,0.097613,0.309028
28,1.032878,0.231831,-0.243071,0.185703
29,1.027055,0.241891,-0.015675,0.118505
30,1.039655,-0.163742,31.126243,6.993681
31,1.019770,-0.005147,-0.037882,-0.029154
32,1.036537,-0.167664,0.019674,0.087999
33,1.043661,-0.159340,0.019354,-0.041109
34,1.025076,0.277409,0.007017,-0.049718
35,1.008763,-0.082855,0.123006,-0.065318
36,1.012565,-0.048135,0.094021,-0.010202
37,1.024466,-0.069407,0.010242,0.023692
38,1.025389,-0.124855,-0.031988,-0.000099
39,1.023295,-0.014668,0.086792,-0.007240
40,1.028455,0.165185,0.000149,0.006129
41,1.025222,-0.128727,0.089415,-0.028662
42,1.022781,0.041426,0.106759,-0.047372
43,1.025103,-0.071813,0.104633,0.061789
44,1.025508,-0.093045,-0.010414,0.022147
45,1.024163,-0.047994,0.103261,-0.115726
46,1.023106,-0.060949,0.028102,-0.051285
47,1.028879,-0.092867,0.099154,0.027618
48,1.020772,-0.083389,0.039740,0.003695
49,1.027822,-0.113437,0.116579,-0.018297
50,1.025065,-0.061967,-34.040194,0.015112
51,1.026342,-0.006781,0.092358,-0.038110
52,1.024822,-0.034436,0.098413,-0.025461
53,1.024454,-0.131490,0.052071,0.105191
54,1.034801,0.086399,0.072759,-0.037154
55,1.023705,-0.073772,0.010296,0.006502
56,1.024911,-0.078429,-0.011307,0.020988
57,1.027464,-0.109840,-0.018865,-0.038650
58,1.023875,-0.075004,0.073012,-0.123855
59,1.025714,-0.070836,0.028227,0.051675
60,1.029939,-0.085930,0.025587,-0.018955
61,1.029965,-0.091520,89.998262,17.245003
62,1.021466,0.022273,0.073191,-0.061798
63,1.034252,0.068805,0.048832,-0.061409
64,1.017632,-0.065061,0.061374,-0.026888
65,1.023327,0.067580,0.018791,0.001528
66,1.029139,-0.067982,0.082775,-0.027385
67,1.028374,-0.106761,-1.163072,0.175529
68,1.024539,-0.130958,0.086212,0.004349
69,1.022903,-0.054953,-0.012043,-0.072951
70,1.024775,-0.031699,0.031670,-0.039678
71,1.022811,-0.009059,-0.005827,0.025842
72,1.016555,0.007894,0.099206,0.043591
73,1.026227,-0.004850,0.151190,-0.064149
74,1.022318,-0.050901,0.081252,-0.004161
75,1.027370,-0.061757,0.044832,-0.003712
76,1.024035,-0.074111,0.041664,0.031992
77,1.029614,0.049290,0.081952,0.012005
78,1.021166,0.021597,0.078181,-0.004837
79,1.027700,-0.043400,0.051380,0.015215
80,1.040933,0.254175,0.060639,0.042032
81,1.037886,-0.109968,0.052787,0.083908
82,1.040288,-0.019350,0.116133,0.067558
83,1.043752,-0.025834,0.108561,0.020947
84,1.036742,0.027184,0.070084,-0.009958
85,1.038152,-0.021918,0.088581,-0.003262
86,1.036158,0.044640,0.077381,0.005314
87,1.043442,0.171710,0.171251,-0.017706
88,1.039299,-0.114844,0.045128,0.003170
89,1.039306,-0.008489,0.036161,-0.011294
90,1.040741,-0.046558,0.165865,-0.045160
91,1.041804,-0.117916,0.035775,0.073753
92,1.034669,-0.095509,0.016355,-0.026893
93,1.038553,-0.101142,0.040388,-0.049878
94,1.040126,-0.106219,-0.050414,-0.026739
95,1.043729,-0.036138,0.129901,-0.012941
96,1.043420,-0.102192,0.110642,0.003117
97,1.037053,0.029687,0.064339,0.037747
98,1.041666,0.013524,-0.021586,0.072145
99,1.043966,0.020333,0.062674,-0.073443
100,1.042811,-0.001036,0.016419,-0.078784
101,1.038287,-0.057612,0.077773,-0.030120
102,1.026614,0.236535,0.006447,-0.087701
103,1.040445,-0.057432,0.036766,0.017986
104,1.039214,-0.118067,0.066114,-0.049905
105,1.042647,0.248356,0.009576,0.071368
106,1.042022,0.017333,0.079874,-0.063918
107,1.029028,0.285368,0.037201,0.048782
108,1.016867,-0.185859,-15.672458,-5.093454
109,1.022802,-0.134045,-281.417460,9.726468
110,1.021544,-0.127227,-190.556740,-17.630613
111,1.024903,-0.183118,-180.940395,-8.656518
112,1.021144,-0.057842,-239.987416,17.393298
113,1.027788,0.381148,-83.070235,-7.389534
114,1.023941,-0.016136,-2.472210,-10.771652
115,1.007113,0.124549,-68.132660,5.094973
116,1.016588,-0.203178,-367.364663,-36.966776
117,1.015226,-0.046502,-61.166977,2.335076
118,1.019276,0.040629,-6.060675,-6.392122
119,1.033736,-0.084169,-237.838777,-33.011718
120,1.024161,-0.126044,-143.967749,-3.589571
121,1.020329,0.212568,-110.802002,-16.812541
122,1.034553,-0.097645,-252.963358,-15.446419
123,1.025140,-0.066277,-219.957682,2.810156
124,1.028333,-0.094883,-149.869603,21.989258
125,1.022531,-0.097584,-127.690715,-11.606479
126,1.030853,0.194389,-106.220467,4.919577
127,1.022423,-0.119886,-90.339152,-5.257908
128,1.034664,-0.219735,-354.242128,-6.304475
129,1.030259,-0.169582,-284.754229,14.356438
130,1.018461,-0.195294,-388.919486,-31.195747
131,1.026534,-0.057550,-168.071171,-23.779583
132,1.013954,-0.042680,8.525282,-8.340273
133,1.006860,-0.255623,-148.923708,9.129916
134,1.022134,-0.198493,-207.085195,4.580232
135,1.027447,-0.121324,-225.828737,-13.263968
136,1.025443,-0.149861,-256.096776,-30.544451
137,1.028870,-0.157926,-143.396979,3.834230
138,1.023953,-0.133433,-143.041566,-21.643188
139,1.022706,-0.125434,-178.715141,-12.579521
140,1.026232,0.140781,-98.470666,10.560443
141,1.018613,-0.088791,-129.115879,-1.788286
142,1.026190,-0.268407,-156.219247,-1.531744
143,1.018315,-0.097380,-51.213132,-4.144703
144,1.022343,-0.122774,-77.624049,-3.344474
145,1.020959,-0.064745,-225.675812,23.712074
146,1.017726,0.286626,-3.060236,-1.273481
147,1.024593,-0.047525,-84.912814,-4.077074
148,1.009299,-0.057634,0.130632,-0.011941
149,1.017392,0.201344,-149.071532,-20.379665
150,1.022140,-0.071010,-87.999128,5.646287
151,1.027818,-0.259831,-220.582022,-20.804922
152,1.020205,-0.014347,-98.996743,7.011518
153,1.020287,0.058566,-9.814827,-0.678494
154,1.015395,-0.109753,-102.567045,-6.995193
155,1.016870,0.057559,-30.801821,4.105676
156,1.018718,-0.077788,-19.873153,-4.949381
157,1.020608,-0.181017,-97.205809,-2.702326
158,1.027954,-0.101216,-102.667491,1.314937
159,1.029353,0.274849,71.535762,24.068049
160,1.024651,-0.099609,-97.181097,-2.797476
161,1.018121,0.058635,142.287515,12.653549
162,1.019335,-0.048368,-74.368114,14.202936
163,1.028497,-0.162689,-7.673886,-1.551138
164,1.025730,0.232514,-34.777214,4.933688
165,1.007300,-0.014379,-37.587218,6.328119
166,1.016102,-0.023087,59.085540,-24.105881
167,1.011240,-0.064692,-14.078102,8.516955
168,1.029744,-0.092054,-167.549877,-9.756919
169,1.025566,0.332127,117.621585,26.816784
170,1.021024,0.006254,-33.147029,18.967271
171,1.013903,-0.132279,-64.799680,-5.426082
172,1.007905,-0.056021,-30.768973,-0.407739
173,1.042473,-0.155838,72.000150,11.942714
174,1.042232,-0.157549,21.020367,-4.436154
175,1.009672,-0.012419,54.047657,-15.316768
176,1.010203,-0.024421,21.995305,7.190279
177,1.042515,-0.159563,0.007721,-0.028062
178,1.026727,-0.058989,29.038345,1.830267
179,1.044113,-0.161576,31.276255,26.468287
180,1.019774,-0.007197,0.081924,-0.153582
181,1.027222,0.004268,66.059227,-5.512180
182,1.042955,-0.159540,0.041657,21.273779
183,1.044104,0.256927,295.112597,14.889442
184,1.038572,-0.164089,0.040517,0.021092
185,1.020947,0.051134,0.110661,0.057015
186,1.012087,0.098175,0.053773,0.073894
187,1.013122,-0.048865,26.582435,-6.805425
188,1.013616,-0.049175,26.511487,-9.722463
189,1.013505,-0.048547,26.605537,-9.749791
190,1.026526,-0.122253,0.050199,-0.020835
191,1.035599,0.097863,184.537520,-8.766868
192,1.031588,0.072053,120.026906,-19.011213
193,1.028448,-0.106534,0.057159,0.065566
194,1.032458,0.016197,120.063302,18.466070
195,1.023943,-0.008560,0.073382,9.029727
196,1.029935,0.166105,93.015228,77.997603
197,1.027084,-0.007713,0.039080,0.082877
198,1.032614,0.164607,0.063909,18.005185
199,1.024887,-0.034584,0.064920,0.030186
200,1.035357,0.087187,32.509579,-1.535700
201,1.033645,0.087126,32.383907,-1.543043
202,1.034129,0.086761,32.498691,-1.476559
203,1.034443,0.087424,122.523771,-13.779797
204,1.023921,-0.070514,0.070388,0.051858
205,1.024820,-0.073256,0.028987,-0.092467
206,1.029449,-0.085196,35.083081,12.590663
207,1.029827,-0.085534,35.096356,10.425486
208,1.025593,-0.123610,0.050802,0.071677
209,1.025978,-0.122917,0.025864,-0.004438
210,1.026777,-0.121561,0.043344,-0.002152
211,1.026173,-0.121755,-0.001187,0.020427
212,1.022210,0.021672,0.051195,0.053970
213,1.024263,-0.069521,-0.006048,0.055096
214,1.024404,-0.069607,0.135997,-0.037051
215,1.024636,-0.070154,0.109609,0.020394
216,1.025188,-0.070636,0.030964,0.001772
217,1.027552,-0.067058,0.053964,0.023048
218,1.029944,-0.069339,100.547993,40.426638
219,1.024513,-0.074273,0.068759,-0.050906
220,1.032532,-0.100871,594.128637,157.243206
221,1.031002,-0.101284,0.106734,-0.013328
222,1.022994,-0.059992,235.365100,25.151732
223,1.023140,0.047646,0.071507,0.061297
224,1.029780,-0.092899,0.021488,0.023201
225,1.041910,0.020872,95.590250,-2.007486
226,1.039098,0.082107,0.039762,-0.042672
227,1.041732,0.247826,-0.044564,-5.169252
228,1.041882,0.248418,0.056096,-7.850269
229,1.042448,-0.117646,0.053323,30.594740
230,1.041775,-0.118082,0.078258,35.257908
231,1.042694,-0.046572,0.018015,17.759183
232,1.043048,-0.102754,157.511319,2.747935
233,1.042817,-0.101967,157.561627,3.256684
234,1.045025,0.173989,118.036671,49.674557
235,1.044832,0.174434,118.110536,50.771734
236,1.043896,0.173104,118.093746,50.753063
237,1.045032,0.019943,115.204665,-6.405605
238,1.044693,0.020343,115.232587,-6.502604
239,1.042769,-0.000261,235.181755,-0.339961
240,1.044002,-0.000068,235.220006,46.418580
241,1.044915,-0.030412,247.877585,-1.786338
242,1.044737,-0.031551,247.788806,0.324321
243,1.044631,0.021281,251.103477,-8.639403
244,1.044384,0.020874,251.156427,-6.474961
245,1.022754,0.276659,-36.929183,-11.711932
246,1.019253,-0.007892,-16.593097,-3.744385
247,1.011845,0.097528,-1.877211,0.121325
248,1.023539,-0.005046,-0.595774,0.159178
249,1.020064,-0.006716,-4.018512,0.846926
250,1.039641,0.211590,-35.595991,44.206966
251,1.029021,-0.194266,2.237737,4.799343
252,1.027446,-0.002330,3.225621,0.144157
253,1.024613,-0.005054,1.200250,5.402202
254,1.037420,-0.166039,1.855585,-1.462425
255,1.038628,0.197598,-127.638326,39.220308
256,1.026567,-0.122077,-7.740529,-0.388184
257,1.023044,0.054914,-0.828855,0.516534
258,1.023162,-0.005455,-1.132773,0.348506
259,1.023309,0.045068,-0.022856,0.540386
260,0.995606,-0.112555,-111.936205,-35.553185
261,1.018264,0.014803,-0.822368,0.397207
262,1.023574,0.061295,126.644662,-15.373341
263,1.022045,0.023007,2.546856,0.513786
264,1.029924,-0.092983,3.403997,-1.027544
265,1.021649,0.046669,100.280980,-8.547035
266,1.022105,0.022534,2.580065,6.681954
267,1.028564,-0.062408,2.093718,-19.204951
268,1.041273,-0.046657,2.032887,33.334382
269,1.004905,0.092527,0.109996,-0.003891
270,1.004427,0.092354,0.030410,0.013315
271,1.004525,0.067477,0.012011,-0.002938
272,1.006052,0.015362,0.061946,0.064355
273,1.020475,-0.186576,30.114409,-0.310601
274,1.022402,-0.187295,-0.012286,0.024293
275,1.021231,-0.187387,0.106324,0.034619
276,1.019317,-0.197717,0.050910,0.051039
277,1.018838,-0.198316,0.024820,-0.013563
278,1.018599,-0.200675,0.112254,-0.074459
279,1.016858,-0.203062,0.129062,-0.040081
280,1.019097,-0.194115,0.049175,0.050709
281,1.021159,-0.190497,0.095312,-0.016051
282,1.020716,-0.188125,0.085686,0.015380
283,1.014058,-0.042647,0.039376,0.014999
284,1.018297,-0.058391,0.152307,-0.047007
285,1.019173,-0.058422,0.036826,-0.035020
286,1.021062,-0.064052,0.150267,-0.106616
287,1.008084,-0.255496,0.180936,-0.046973
288,1.008071,-0.255252,0.001411,0.060516
289,1.011013,-0.255403,0.106190,0.031140
290,1.011633,-0.253500,0.068608,0.043666
291,1.011918,-0.253526,0.051149,0.030349
292,1.012065,-0.254239,0.078764,0.055652
293,1.013038,-0.252632,3.835439,-1.393488
294,1.008961,-0.060478,0.032839,-0.010681
295,1.009410,-0.064436,0.162116,-0.080867
296,1.009844,-0.065701,-0.031565,-0.005689
297,1.010669,-0.065220,0.006608,-0.083680
298,1.009355,-0.023252,-0.019994,-0.109557
299,1.009436,-0.023783,0.080630,-0.021169
300,1.009246,-0.023039,0.089003,-0.060592
301,1.009388,-0.033051,0.018985,-0.044578
302,1.009116,-0.040753,0.013474,0.009553
303,1.009100,-0.050455,0.057096,-0.010523
304,1.008339,-0.049898,0.117512,-0.017735
